Version 4
SHEET 1 1244 868
WIRE 672 336 448 336
WIRE 672 368 672 336
WIRE 672 496 672 448
WIRE 448 512 448 336
WIRE 400 592 304 592
WIRE 448 656 448 608
WIRE 592 656 448 656
WIRE 304 688 304 592
WIRE 448 688 448 656
WIRE 304 848 304 768
WIRE 448 848 448 768
FLAG 448 848 0
FLAG 304 848 0
FLAG 672 496 0
FLAG 592 656 Vout
SYMBOL nmos 400 512 R0
SYMATTR InstName M1
SYMATTR Value xNMOS
SYMBOL voltage 304 672 R0
WINDOW 123 0 0 Left 0
WINDOW 39 0 0 Left 0
SYMATTR InstName Vin
SYMATTR Value 0
SYMBOL voltage 672 352 R0
WINDOW 123 0 0 Left 0
WINDOW 39 0 0 Left 0
SYMATTR InstName VDS
SYMATTR Value 4
SYMBOL res 432 672 R0
SYMATTR InstName R1
SYMATTR Value {R}
TEXT 48 160 Left 2 !.model xNMOS NMOS(VTO=0.7,TOX=9e-9,GAMMA=0.45,PHI=0.90,UO=350,LAMBDA=0.1)
TEXT 48 200 Left 2 !.dc Vin 0 4 0.001
TEXT 48 240 Left 2 !.step param R list 10k 20k 40k 80k 1Meg
