Version 4
SHEET 1 880 680
WIRE 96 -288 -128 -288
WIRE 560 -288 352 -288
WIRE 640 -288 560 -288
WIRE 96 -240 96 -288
WIRE 96 -112 96 -160
WIRE 96 -112 32 -112
WIRE 224 -112 96 -112
WIRE 352 -112 352 -288
WIRE 416 -112 352 -112
WIRE 96 -80 96 -112
WIRE 352 -80 352 -112
WIRE 224 0 224 -112
WIRE 224 0 144 0
WIRE 304 0 224 0
WIRE 96 48 96 16
WIRE 96 48 32 48
WIRE 224 48 96 48
WIRE 352 48 352 16
WIRE 416 48 352 48
WIRE 96 80 96 48
WIRE 352 80 352 48
WIRE 224 160 224 48
WIRE 224 160 144 160
WIRE 304 160 224 160
WIRE -128 208 -128 -288
WIRE 560 208 560 -288
WIRE -128 352 -128 288
WIRE 96 352 96 176
WIRE 352 352 352 176
WIRE 560 352 560 288
FLAG -128 352 0
FLAG 560 352 0
FLAG 96 352 0
FLAG 352 352 0
FLAG 32 -112 VD3
FLAG 32 48 VD1
FLAG 416 -112 VD4
FLAG 416 48 VD2
FLAG 640 -288 Vout
SYMBOL nmos 144 80 M0
SYMATTR InstName M1
SYMBOL nmos 304 80 R0
SYMATTR InstName M2
SYMBOL voltage -128 192 R0
WINDOW 123 0 0 Left 0
WINDOW 39 0 0 Left 0
SYMATTR InstName VDD
SYMATTR Value 0
SYMBOL voltage 560 192 R0
WINDOW 123 0 0 Left 0
WINDOW 39 0 0 Left 0
SYMATTR InstName Vout
SYMATTR Value 0
SYMBOL current 96 -240 R0
WINDOW 123 0 0 Left 0
WINDOW 39 0 0 Left 0
SYMATTR InstName IREF
SYMATTR Value 0.2m
SYMBOL nmos 144 -80 M0
SYMATTR InstName M3
SYMBOL nmos 304 -80 R0
SYMATTR InstName M4
